96

C      -0.000000000000000      0.000000000000000     10.201801241478544
Cl     -0.000001597303637      1.821963035476714     12.804791187998292
Cr     -0.000001597303637      1.821963035476714      9.214853147182357
Cr      1.577867076189311      0.910980135943957     11.158739162789987
H       1.577867076189311      0.910980135943957      7.042114109548507
O       1.577867076189311      0.910980135943957      8.027490849093086
C      -1.577865524353913      2.732943255680539     10.201801241478544
Cl     -1.577867121657549      4.554906291157253     12.804791187998292
Cr     -1.577867121657549      4.554906291157253      9.214853147182357
Cr      0.000001551835398      3.643923391624496     11.158739162789987
H       0.000001551835398      3.643923391624496      7.042114109548507
O       0.000001551835398      3.643923391624496      8.027490849093086
C      -3.155731048707825      5.465886511361077     10.201801241478544
Cl     -3.155732646011463      7.287849546837792     12.804791187998292
Cr     -3.155732646011463      7.287849546837792      9.214853147182357
Cr     -1.577863972518515      6.376866647305035     11.158739162789987
H      -1.577863972518515      6.376866647305035      7.042114109548507
O      -1.577863972518515      6.376866647305035      8.027490849093086
C      -4.733596573061738      8.198829767041618     10.201801241478544
Cl     -4.733598170365375     10.020792802518331     12.804791187998292
Cr     -4.733598170365375     10.020792802518331      9.214853147182357
Cr     -3.155729496872427      9.109809902985575     11.158739162789987
H      -3.155729496872427      9.109809902985575      7.042114109548507
O      -3.155729496872427      9.109809902985575      8.027490849093086
C       3.155731048707825      0.000000000000000     10.201801241478544
Cl      3.155729451404188      1.821963035476714     12.804791187998292
Cr      3.155729451404188      1.821963035476714      9.214853147182357
Cr      4.733598124897136      0.910980135943957     11.158739162789987
H       4.733598124897136      0.910980135943957      7.042114109548507
O       4.733598124897136      0.910980135943957      8.027490849093086
C       1.577865524353913      2.732943255680539     10.201801241478544
Cl      1.577863927050276      4.554906291157253     12.804791187998292
Cr      1.577863927050276      4.554906291157253      9.214853147182357
Cr      3.155732600543223      3.643923391624496     11.158739162789987
H       3.155732600543223      3.643923391624496      7.042114109548507
O       3.155732600543223      3.643923391624496      8.027490849093086
C       0.000000000000000      5.465886511361077     10.201801241478544
Cl     -0.000001597303637      7.287849546837792     12.804791187998292
Cr     -0.000001597303637      7.287849546837792      9.214853147182357
Cr      1.577867076189311      6.376866647305035     11.158739162789987
H       1.577867076189311      6.376866647305035      7.042114109548507
O       1.577867076189311      6.376866647305035      8.027490849093086
C      -1.577865524353912      8.198829767041618     10.201801241478544
Cl     -1.577867121657549     10.020792802518331     12.804791187998292
Cr     -1.577867121657549     10.020792802518331      9.214853147182357
Cr      0.000001551835398      9.109809902985575     11.158739162789987
H       0.000001551835398      9.109809902985575      7.042114109548507
O       0.000001551835398      9.109809902985575      8.027490849093086
C       6.311462097415649      0.000000000000000     10.201801241478544
Cl      6.311460500112013      1.821963035476714     12.804791187998292
Cr      6.311460500112013      1.821963035476714      9.214853147182357
Cr      7.889329173604961      0.910980135943957     11.158739162789987
H       7.889329173604961      0.910980135943957      7.042114109548507
O       7.889329173604961      0.910980135943957      8.027490849093086
C       4.733596573061737      2.732943255680539     10.201801241478544
Cl      4.733594975758101      4.554906291157253     12.804791187998292
Cr      4.733594975758101      4.554906291157253      9.214853147182357
Cr      6.311463649251048      3.643923391624496     11.158739162789987
H       6.311463649251048      3.643923391624496      7.042114109548507
O       6.311463649251048      3.643923391624496      8.027490849093086
C       3.155731048707825      5.465886511361077     10.201801241478544
Cl      3.155729451404188      7.287849546837792     12.804791187998292
Cr      3.155729451404188      7.287849546837792      9.214853147182357
Cr      4.733598124897135      6.376866647305035     11.158739162789987
H       4.733598124897135      6.376866647305035      7.042114109548507
O       4.733598124897135      6.376866647305035      8.027490849093086
C       1.577865524353914      8.198829767041618     10.201801241478544
Cl      1.577863927050276     10.020792802518331     12.804791187998292
Cr      1.577863927050276     10.020792802518331      9.214853147182357
Cr      3.155732600543224      9.109809902985575     11.158739162789987
H       3.155732600543224      9.109809902985575      7.042114109548507
O       3.155732600543224      9.109809902985575      8.027490849093086
C       9.467193146123478      0.000000000000000     10.201801241478544
Cl      9.467191548819839      1.821963035476714     12.804791187998292
Cr      9.467191548819839      1.821963035476714      9.214853147182357
Cr     11.045060222312786      0.910980135943957     11.158739162789987
H      11.045060222312786      0.910980135943957      7.042114109548507
O      11.045060222312786      0.910980135943957      8.027490849093086
C       7.889327621769565      2.732943255680539     10.201801241478544
Cl      7.889326024465928      4.554906291157253     12.804791187998292
Cr      7.889326024465928      4.554906291157253      9.214853147182357
Cr      9.467194697958874      3.643923391624496     11.158739162789987
H       9.467194697958874      3.643923391624496      7.042114109548507
O       9.467194697958874      3.643923391624496      8.027490849093086
C       6.311462097415653      5.465886511361077     10.201801241478544
Cl      6.311460500112015      7.287849546837792     12.804791187998292
Cr      6.311460500112015      7.287849546837792      9.214853147182357
Cr      7.889329173604962      6.376866647305035     11.158739162789987
H       7.889329173604962      6.376866647305035      7.042114109548507
O       7.889329173604962      6.376866647305035      8.027490849093086
C       4.733596573061739      8.198829767041618     10.201801241478544
Cl      4.733594975758102     10.020792802518331     12.804791187998292
Cr      4.733594975758102     10.020792802518331      9.214853147182357
Cr      6.311463649251048      9.109809902985575     11.158739162789987
H       6.311463649251048      9.109809902985575      7.042114109548507
O       6.311463649251048      9.109809902985575      8.027490849093086
